tests/src/test/resources/files/cases/epic93/4Nodes.uct
##C 2007.05.01
Generated by powsybl, 2025-07-30T17:25:50.970193685+02:00[Europe/Paris]
Case date: 2025-07-30T17:25:50.001712601+02:00[Europe/Paris]
##N
##ZFR
FFR1AA1  FR1          0 2 400.00 0.00000 0.00000 -1000.0 0.00000 9000.00 -9000.0 9000.00 -9000.0                               F
FFR2AA1  FR2          0 2 400.00 0.00000 0.00000 1000.00 0.00000 9000.00 -9000.0 9000.00 -9000.0                               F
FFR3AA1  FR3          0 2 400.00 0.00000 0.00000 -1000.0 0.00000 9000.00 -9000.0 9000.00 -9000.0                               F
FFR4AA1  FR4          0 2 400.00 0.00000 0.00000 1000.00 0.00000 9000.00 -9000.0 9000.00 -9000.0                               F
##L
FFR1AA1  FFR2AA1  1 0 0.0000 10.000 0.000000   5000
FFR2AA1  FFR3AA1  1 0 0.0000 10.000 0.000000   5000
FFR3AA1  FFR4AA1  1 0 0.0000 10.000 0.000000   5000
FFR4AA1  FFR1AA1  1 0 0.0000 10.000 0.000000   5000
##T
##R